# generated using pymatgen
data_Fe4N_tetragonal_suggestion
_symmetry_space_group_name_H-M   "P 4/m 2/m 2/m"
_cell_length_a   3.67
_cell_length_b   3.67
_cell_length_c   8.2
_cell_angle_alpha   90.00000000
_cell_angle_beta   90.00000000
_cell_angle_gamma   90.00000000
_symmetry_Int_Tables_number   123
_chemical_formula_structural   Fe4N
_chemical_formula_sum   'Fe4 N1'
_cell_volume   110.44498
_cell_formula_units_Z   2
loop_
 _symmetry_equiv_pos_site_id
 _symmetry_equiv_pos_as_xyz
1 x,y,z
2 x,-y,-z
3 -x,y,-z
4 -x,-y,z
5 -y,-x,-z
6 -y,x,z
7 y,-x,z
8 y,x,-z
9 -x,-y,-z
10 -x,y,z
11 x,-y,z
12 x,y,-z
13 y,x,z
14 y,-x,-z
15 -y,x,-z
16 -y,-x,z
loop_
 _atom_site_type_symbol
 _atom_site_label
 _atom_site_symmetry_multiplicity
 _atom_site_Wykoff_label
 _atom_site_fract_x
 _atom_site_fract_y
 _atom_site_fract_z
 _atom_site_occupancy
  Fe  Fe0  1 a  0.00000000   0.000000    0.00000    1
  Fe  Fe1  1 b  0.0          0.0         0.5        1
  Fe  Fe2  1 c  0.5          0.5         0.0	    1
  Fe  Fe3  1 d  0.5          0.5         0.5        1
  Fe  Fe4  1 i  0.0          0.5         0.37       1
  N   N1   1 h  0.5          0.5         0.37       1

